
#######################################################################
# Fullerene C60 PM7 model
# Example provided with MoloVol program
#######################################################################

data_example-C60
_symmetry_cell_setting           triclinic
_symmetry_space_group_name_H-M   'P 1'
_symmetry_Int_Tables_number      1
_space_group_name_Hall           'P 1'
loop_
_symmetry_equiv_pos_site_id
_symmetry_equiv_pos_as_xyz
1 x,y,z
_cell_length_a                   13
_cell_length_b                   13
_cell_length_c                   13
_cell_angle_alpha                90
_cell_angle_beta                 90
_cell_angle_gamma                90
_cell_volume                     2197
loop_
_atom_site_label
_atom_site_type_symbol
_atom_site_fract_x
_atom_site_fract_y
_atom_site_fract_z
C C 0.379308 0.635 0.686231
C C 0.287692 0.608462 0.627
C C 0.289077 0.668615 0.532231
C C 0.248615 0.355154 0.528385
C C 0.216538 0.462692 0.529692
C C 0.252462 0.508308 0.625769
C C 0.437231 0.711615 0.628154
C C 0.381462 0.732385 0.533
C C 0.430615 0.56 0.741077
C C 0.393308 0.454154 0.739769
C C 0.482462 0.386 0.738846
C C 0.311615 0.643462 0.346154
C C 0.255077 0.625462 0.441462
C C 0.217846 0.519538 0.440154
C C 0.304385 0.334308 0.623538
C C 0.306769 0.429 0.683692
C C 0.542769 0.557231 0.740923
C C 0.574846 0.449692 0.739538
C C 0.309231 0.548769 0.285923
C C 0.251231 0.472231 0.344
C C 0.398923 0.703769 0.346846
C C 0.434846 0.749462 0.442846
C C 0.547077 0.746692 0.442692
C C 0.570231 0.265462 0.622385
C C 0.480231 0.296385 0.681923
C C 0.388692 0.269846 0.622615
C C 0.657615 0.325769 0.623077
C C 0.714077 0.343769 0.527769
C C 0.751385 0.449692 0.529077
C C 0.688923 0.658923 0.531769
C C 0.687615 0.598769 0.626538
C C 0.597615 0.629692 0.686
C C 0.280231 0.310308 0.437462
C C 0.369385 0.242154 0.436538
C C 0.425846 0.260231 0.341231
C C 0.66 0.420462 0.683308
C C 0.717923 0.497 0.625154
C C 0.534308 0.219769 0.526385
C C 0.422154 0.222538 0.526538
C C 0.488923 0.672846 0.287308
C C 0.580462 0.699385 0.346615
C C 0.281615 0.370462 0.342692
C C 0.371615 0.339538 0.283231
C C 0.599769 0.727077 0.532692
C C 0.543308 0.709 0.628
C C 0.720538 0.614154 0.440846
C C 0.664846 0.634923 0.345692
C C 0.662462 0.540231 0.285538
C C 0.538615 0.409231 0.228154
C C 0.426385 0.412 0.228308
C C 0.394308 0.519538 0.229692
C C 0.589923 0.334231 0.283
C C 0.681462 0.360769 0.342231
C C 0.680077 0.300615 0.437
C C 0.752615 0.506538 0.439538
C C 0.716692 0.460923 0.343462
C C 0.532 0.257615 0.341077
C C 0.587692 0.236846 0.436231
C C 0.575846 0.515077 0.229462
C C 0.486692 0.583231 0.230385

#END
